test/TEST190523/v_h9.csv
Bus, BasekV, Node1, Magnitude1, Angle1, pu1, Node2, Magnitude2, Angle2, pu2, Node3, Magnitude3, Angle3, pu3
"SOURCEBUS", 69, 1,      41808,   -0.2,    1.0495, 2,    41814.7, -120.2,    1.0496, 3,    41772.8,  119.8,    1.0486
"BUSMVMAI1", 12.8, 1,    7748.42,  -30.5,    1.0485, 2,     7754.8, -150.5,    1.0494, 3,    7736.65,   89.2,    1.0469
"BUSMVMAI136", 12.505, 1,    7748.43,  -30.5,    1.0732, 2,    7754.75, -150.5,    1.0741, 3,    7736.56,   89.2,    1.0715
"BUSMVMAI3", 12.505, 1,    7754.87,  -31.1,    1.0741, 2,    7713.22, -150.6,    1.0683, 3,    7661.94,   88.2,    1.0612
"BUSMVMAI2", 12.505, 1,    7754.89,  -31.1,    1.0741, 2,     7713.1, -150.6,    1.0683, 3,    7661.73,   88.2,    1.0612
"BUSMVMAI4", 12.505, 1,    7755.08,  -31.1,    1.0741, 2,    7711.93, -150.6,    1.0681, 3,    7659.65,   88.2,    1.0609
"BUSMVMAI46", 12.505, 1,    7754.87,  -31.1,    1.0741, 2,    7713.27, -150.6,    1.0683, 3,    7662.03,   88.2,    1.0612
"BUSMVMAI5", 12.505, 1,    7755.01,  -31.1,    1.0741, 2,    7710.59, -150.6,    1.0679, 3,    7657.47,   88.2,    1.0606
"BUSMVMAI862", 12.505, 1,    7755.07,  -31.1,    1.0741, 0, 0, 0, 0, 0, 0, 0, 0
"BUSMVMAI6", 12.505, 1,    7754.98,  -31.1,    1.0741, 2,    7710.34, -150.6,    1.0679, 3,    7657.08,   88.1,    1.0605
"BUSMVMAI859", 12.505, 3,    7657.44,   88.2,    1.0606, 0, 0, 0, 0, 0, 0, 0, 0
"BUSMVMAI860", 12.505, 3,    7657.47,   88.2,    1.0606, 0, 0, 0, 0, 0, 0, 0, 0
"BUSMVMAI7", 12.505, 1,    7754.56,  -31.1,     1.074, 2,    7709.36, -150.6,    1.0678, 3,    7655.47,   88.1,    1.0603
"BUSMVMAI8", 12.505, 1,    7755.24,  -31.1,    1.0741, 2,     7707.7, -150.6,    1.0675, 3,    7653.95,   88.1,    1.0601
"BUSMVMAI9", 12.505, 1,    7754.56,  -31.1,     1.074, 2,    7709.36, -150.6,    1.0678, 3,    7655.46,   88.1,    1.0603
"BUSMVMAI10", 12.505, 1,    7754.07,  -31.1,     1.074, 2,    7709.34, -150.6,    1.0678, 3,    7655.02,   88.1,    1.0603
"BUSMVMAI56", 12.505, 1,    7754.32,  -31.1,     1.074, 2,    7709.35, -150.6,    1.0678, 3,    7655.25,   88.1,    1.0603
"BUSMVMAI861", 12.505, 3,    7657.35,   88.2,    1.0606, 0, 0, 0, 0, 0, 0, 0, 0
"BUSMVMAI12", 12.505, 1,     7755.8,  -31.1,    1.0742, 2,    7706.36, -150.6,    1.0674, 3,    7652.71,   88.1,    1.0599
"BUSMVMAI51", 12.505, 1,    7755.24,  -31.1,    1.0741, 2,     7707.7, -150.6,    1.0675, 3,    7653.95,   88.1,    1.0601
"BUSMVMAI2171", 12.505, 1,    7755.25,  -31.1,    1.0741, 0, 0, 0, 0, 0, 0, 0, 0
"BUSMVMAI863", 12.505, 3,    7657.28,   88.2,    1.0606, 0, 0, 0, 0, 0, 0, 0, 0
"BUSMVMAI2165", 12.505, 3,    7655.46,   88.1,    1.0603, 0, 0, 0, 0, 0, 0, 0, 0
"BUSMVMAI694", 12.505, 1,    7754.56,  -31.1,     1.074, 2,    7709.36, -150.6,    1.0678, 3,    7655.46,   88.1,    1.0603
"BUSMVMAI122", 12.505, 1,    7754.05,  -31.1,     1.074, 2,    7709.34, -150.6,    1.0678, 3,       7655,   88.1,    1.0602
"BUSMVMAI11", 12.505, 1,     7755.8,  -31.1,    1.0742, 2,    7706.35, -150.6,    1.0674, 3,    7652.71,   88.1,    1.0599
"BUSMVMAI13", 12.505, 1,    7755.79,  -31.1,    1.0742, 2,    7706.33, -150.6,    1.0674, 3,    7652.73,   88.1,    1.0599
"BUSMVMAI18", 12.505, 1,    7756.02,  -31.1,    1.0742, 2,    7705.87, -150.6,    1.0673, 3,    7652.23,   88.1,    1.0599
"BUSMVMAI14", 12.505, 1,    7755.76,  -31.1,    1.0742, 2,    7706.27, -150.6,    1.0674, 3,    7652.77,   88.1,    1.0599
"BUSMVMAI15", 12.505, 1,    7755.74,  -31.1,    1.0742, 2,    7706.21, -150.6,    1.0673, 3,    7652.81,   88.1,    1.0599
"BUSMVMAI16", 12.505, 1,    7755.73,  -31.1,    1.0742, 2,    7706.21, -150.6,    1.0673, 3,    7652.82,   88.1,    1.0599
"BUSMVMAI2166", 12.505, 2,     7706.2, -150.6,    1.0673, 0, 0, 0, 0, 0, 0, 0, 0
"BUSMVMAI2172", 12.505, 1,    7755.06,  -31.1,    1.0741, 0, 0, 0, 0, 0, 0, 0, 0
"BUSMVMAI864", 12.505, 3,    7657.23,   88.1,    1.0606, 0, 0, 0, 0, 0, 0, 0, 0
"BUSMVMAI865", 12.505, 3,    7657.15,   88.1,    1.0605, 0, 0, 0, 0, 0, 0, 0, 0
"BUSMVMAI17", 12.505, 1,    7755.73,  -31.1,    1.0742, 2,    7706.21, -150.6,    1.0673, 3,    7652.82,   88.1,    1.0599
"BUSMVMAI695", 12.505, 1,    7755.73,  -31.1,    1.0742, 2,    7706.21, -150.6,    1.0673, 3,    7652.82,   88.1,    1.0599
"BUSMVMAI866", 12.505, 3,    7657.15,   88.1,    1.0605, 0, 0, 0, 0, 0, 0, 0, 0
"BUSMVMAI2176", 12.505, 3,    7657.15,   88.1,    1.0605, 0, 0, 0, 0, 0, 0, 0, 0
"BUSMVMAI2177", 12.505, 3,    7657.14,   88.1,    1.0605, 0, 0, 0, 0, 0, 0, 0, 0
"BUSMVMAI2178", 12.505, 3,    7657.09,   88.1,    1.0605, 0, 0, 0, 0, 0, 0, 0, 0
"BUSMVMAI19", 12.505, 1,    7756.42,  -31.1,    1.0743, 2,    7704.99, -150.6,    1.0672, 3,    7651.36,   88.1,    1.0597
"BUSMVMAI20", 12.505, 1,    7756.98,  -31.1,    1.0744, 2,    7703.75, -150.6,     1.067, 3,    7650.15,   88.1,    1.0596
"BUSMVMAI53", 12.505, 1,    7756.42,  -31.1,    1.0743, 2,    7704.99, -150.6,    1.0672, 3,    7651.36,   88.1,    1.0597
"BUSMVMAI21", 12.505, 1,    7757.57,  -31.1,    1.0745, 2,    7702.45, -150.6,    1.0668, 3,    7648.88,   88.0,    1.0594
"BUSMVMAI22", 12.505, 1,    7758.27,  -31.1,    1.0746, 2,    7700.92, -150.6,    1.0666, 3,    7647.39,   88.0,    1.0592
"BUSMVMAI23", 12.505, 1,    7757.57,  -31.1,    1.0745, 2,    7702.45, -150.6,    1.0668, 3,    7648.87,   88.0,    1.0594
"BUSMVMAI25", 12.505, 1,    7759.01,  -31.1,    1.0747, 2,    7699.31, -150.6,    1.0664, 3,    7645.85,   88.0,     1.059
"BUSMVMAI52", 12.505, 1,    7758.27,  -31.1,    1.0746, 2,    7700.92, -150.6,    1.0666, 3,    7647.39,   88.0,    1.0592
"BUSMVMAI54", 12.505, 1,    7758.27,  -31.1,    1.0746, 2,    7700.92, -150.6,    1.0666, 3,    7647.39,   88.0,    1.0592
"BUSMVMAI55", 12.505, 1,    7758.27,  -31.1,    1.0746, 2,    7700.92, -150.6,    1.0666, 3,    7647.39,   88.0,    1.0592
"BUSMVMAI696", 12.505, 1,    7757.57,  -31.1,    1.0745, 2,    7702.45, -150.6,    1.0668, 3,    7648.87,   88.0,    1.0594
"BUSMVMAI24", 12.505, 1,    7759.08,  -31.1,    1.0747, 2,    7699.16, -150.6,    1.0664, 3,     7645.7,   88.0,     1.059
"BUSMVMAI26", 12.505, 1,    7759.83,  -31.1,    1.0748, 2,    7697.55, -150.6,    1.0661, 3,    7644.16,   88.0,    1.0587
"BUSMVMAI49", 12.505, 1,    7759.01,  -31.1,    1.0747, 2,    7699.31, -150.6,    1.0664, 3,    7645.85,   88.0,     1.059
"BUSMVMAI50", 12.505, 1,    7759.01,  -31.1,    1.0747, 2,    7699.31, -150.6,    1.0664, 3,    7645.85,   88.0,     1.059
"BUSMVMAI27", 12.505, 1,    7759.81,  -31.1,    1.0748, 2,    7697.56, -150.6,    1.0661, 3,    7644.15,   88.0,    1.0587
"BUSMVMAI28", 12.505, 1,    7760.41,  -31.1,    1.0748, 2,    7696.31, -150.6,     1.066, 3,       7643,   87.9,    1.0586
"BUSMVMAI29", 12.505, 1,    7759.78,  -31.1,    1.0748, 2,    7697.58, -150.6,    1.0661, 3,    7644.14,   88.0,    1.0587
"BUSMVMAI31", 12.505, 1,    7761.08,  -31.1,    1.0749, 2,    7694.87, -150.6,    1.0658, 3,    7641.65,   87.9,    1.0584
"BUSMVMAI30", 12.505, 1,    7759.75,  -31.1,    1.0748, 2,    7697.59, -150.6,    1.0661, 3,    7644.13,   88.0,    1.0587
"BUSMVMAI34", 12.505, 1,    7759.73,  -31.1,    1.0748, 2,    7697.61, -150.6,    1.0662, 3,    7644.12,   88.0,    1.0587
"BUSMVMAI867", 12.505, 1,       7761,  -31.1,    1.0749, 0, 0, 0, 0, 0, 0, 0, 0
"BUSMVMAI43", 12.505, 1,     7761.1,  -31.1,    1.0749, 2,    7694.84, -150.6,    1.0658, 3,    7641.62,   87.9,    1.0584
"BUSMVMAI871", 12.505, 2,    7694.87, -150.6,    1.0658, 0, 0, 0, 0, 0, 0, 0, 0
"BUSMVMAI33", 12.505, 1,    7761.31,  -31.1,     1.075, 2,    7694.41, -150.6,    1.0657, 3,    7641.25,   87.9,    1.0583
"BUSMVMAI32", 12.505, 1,    7761.92,  -31.1,    1.0751, 2,    7693.15, -150.6,    1.0655, 3,    7640.13,   87.9,    1.0582
"BUSMVMAI37", 12.505, 1,    7762.74,  -31.1,    1.0752, 2,    7691.42, -150.6,    1.0653, 3,    7638.64,   87.9,     1.058
"BUSMVMAI44", 12.505, 1,    7761.12,  -31.1,    1.0749, 2,     7694.8, -150.6,    1.0658, 3,    7641.59,   87.9,    1.0584
"BUSMVMAI35", 12.505, 1,    7759.73,  -31.1,    1.0748, 2,    7697.61, -150.6,    1.0662, 3,    7644.11,   88.0,    1.0587
"BUSMVMAI36", 12.505, 1,    7759.73,  -31.1,    1.0748, 2,    7697.61, -150.6,    1.0662, 3,    7644.11,   88.0,    1.0587
"BUSMVMAI869", 12.505, 1,       7761,  -31.1,    1.0749, 0, 0, 0, 0, 0, 0, 0, 0
"BUSMVMAI38", 12.505, 1,    7763.39,  -31.1,    1.0753, 2,    7690.04, -150.6,    1.0651, 3,    7637.46,   87.8,    1.0578
"BUSMVMAI2181", 12.505, 1,    7762.72,  -31.1,    1.0752, 0, 0, 0, 0, 0, 0, 0, 0
"BUSMVMAI868", 12.505, 1,    7760.85,  -31.1,    1.0749, 0, 0, 0, 0, 0, 0, 0, 0
"BUSMVMAI870", 12.505, 1,     7760.7,  -31.1,    1.0749, 0, 0, 0, 0, 0, 0, 0, 0
"BUSMVMAI39", 12.505, 1,    7763.42,  -31.1,    1.0753, 2,    7690.02, -150.6,    1.0651, 3,    7637.41,   87.8,    1.0578
"BUSMVMAI40", 12.505, 1,       7764,  -31.1,    1.0753, 2,     7688.7, -150.6,    1.0649, 3,    7636.35,   87.8,    1.0577
"BUSMVMAI697", 12.505, 1,    7763.46,  -31.1,    1.0753, 2,    7690.04, -150.6,    1.0651, 3,    7637.24,   87.8,    1.0578
"BUSMVMAI41", 12.505, 1,     7764.7,  -31.1,    1.0754, 2,    7687.17, -150.6,    1.0647, 3,    7635.05,   87.8,    1.0575
"BUSMVMAI42", 12.505, 1,    7764.73,  -31.1,    1.0754, 2,    7687.15, -150.6,    1.0647, 3,    7635.01,   87.8,    1.0575
"BUSMVMAI48", 12.505, 1,    7765.26,  -31.1,    1.0755, 2,     7685.9, -150.6,    1.0645, 3,    7633.99,   87.8,    1.0573
"BUSMVMAI303", 12.505, 1,    7764.98,  -31.1,    1.0755, 2,    7686.54, -150.6,    1.0646, 3,    7634.52,   87.8,    1.0574
"BUSMVMAI45", 12.505, 1,    7764.74,  -31.1,    1.0754, 2,    7687.15, -150.6,    1.0647, 3,       7635,   87.8,    1.0575
"BUSMVMAI701", 12.505, 1,    7764.74,  -31.1,    1.0754, 2,    7687.15, -150.6,    1.0647, 3,    7634.98,   87.8,    1.0575
"BUSMVMAI47", 12.505, 1,    7754.78,  -31.0,    1.0741, 2,    7713.78, -150.6,    1.0684, 3,    7662.94,   88.2,    1.0613
"BUSMVMAI179", 12.505, 1,    7754.82,  -31.0,    1.0741, 2,    7713.52, -150.6,    1.0684, 3,    7662.48,   88.2,    1.0613
"BUSMVMAI160", 12.505, 1,    7754.58,  -31.0,     1.074, 2,    7715.03, -150.6,    1.0686, 3,    7665.15,   88.2,    1.0617
"BUSMVMAI1103", 12.505, 1,    7765.16,  -31.1,    1.0755, 0, 0, 0, 0, 0, 0, 0, 0
"BUSMVMAI259", 12.505, 1,    7765.61,  -31.1,    1.0756, 2,    7685.21, -150.6,    1.0644, 3,    7633.52,   87.8,    1.0573
"BUSMVMAI304", 12.505, 1,    7765.26,  -31.1,    1.0755, 2,     7685.9, -150.6,    1.0645, 3,    7633.99,   87.8,    1.0573
"BUSMVMAI702", 12.505, 1,    7759.01,  -31.1,    1.0747, 2,    7699.31, -150.6,    1.0664, 3,    7645.85,   88.0,     1.059
"BUSMVMAI58", 12.505, 1,    7753.74,  -31.1,    1.0739, 2,    7709.32, -150.6,    1.0678, 3,    7654.71,   88.1,    1.0602
"BUSMVMAI57", 12.505, 1,    7752.58,  -31.1,    1.0738, 2,    7709.28, -150.6,    1.0678, 3,    7653.66,   88.1,    1.0601
"BUSMVMAI60", 12.505, 1,     7752.1,  -31.1,    1.0737, 2,    7709.26, -150.6,    1.0678, 3,    7653.23,   88.1,      1.06
"BUSMVMAI703", 12.505, 1,    7752.59,  -31.1,    1.0738, 2,    7709.28, -150.6,    1.0678, 3,    7653.65,   88.1,    1.0601
"BUSMVMAI123", 12.505, 1,    7754.02,  -31.1,     1.074, 2,    7709.33, -150.6,    1.0678, 3,    7654.98,   88.1,    1.0602
"BUSMVMAI59", 12.505, 1,    7751.38,  -31.1,    1.0736, 2,    7709.29, -150.6,    1.0678, 3,     7652.8,   88.1,    1.0599
"BUSMVMAI61", 12.505, 1,    7750.19,  -31.1,    1.0734, 2,    7709.33, -150.6,    1.0678, 3,    7652.08,   88.1,    1.0598
"BUSMVMAI63", 12.505, 1,    7752.15,  -31.1,    1.0737, 2,    7709.23, -150.6,    1.0678, 3,    7653.15,   88.1,      1.06
"BUSMVMAI874", 12.505, 3,    7653.23,   88.1,      1.06, 0, 0, 0, 0, 0, 0, 0, 0
"BUSMVMAI62", 12.505, 1,    7749.04,  -31.1,    1.0733, 2,     7709.3, -150.6,    1.0678, 3,    7651.36,   88.1,    1.0597
"BUSMVMAI64", 12.505, 1,    7747.74,  -31.1,    1.0731, 2,    7709.34, -150.6,    1.0678, 3,    7650.87,   88.1,    1.0597
"BUSMVMAI942", 12.505, 3,    7651.36,   88.1,    1.0597, 0, 0, 0, 0, 0, 0, 0, 0
"BUSMVMAI873", 12.505, 3,    7651.35,   88.1,    1.0597, 0, 0, 0, 0, 0, 0, 0, 0
"BUSMVMAI872", 12.505, 3,       7651,   88.1,    1.0597, 0, 0, 0, 0, 0, 0, 0, 0
"BUSMVMAI880", 12.505, 3,    7650.99,   88.1,    1.0597, 0, 0, 0, 0, 0, 0, 0, 0
"BUSMVMAI945", 12.505, 3,    7653.13,   88.1,      1.06, 0, 0, 0, 0, 0, 0, 0, 0
"BUSMVMAI65", 12.505, 1,    7746.34,  -31.1,    1.0729, 2,    7709.37, -150.6,    1.0678, 3,    7650.32,   88.1,    1.0596
"BUSMVMAI66", 12.505, 1,    7744.93,  -31.2,    1.0727, 2,    7709.39, -150.6,    1.0678, 3,    7649.76,   88.1,    1.0595
"BUSMVMAI67", 12.505, 1,    7743.41,  -31.2,    1.0725, 2,    7709.42, -150.6,    1.0678, 3,    7649.16,   88.1,    1.0594
"BUSMVMAI878", 12.505, 1,     7743.3,  -31.2,    1.0725, 0, 0, 0, 0, 0, 0, 0, 0
"BUSMVMAI68", 12.505, 1,    7742.32,  -31.2,    1.0723, 2,    7709.38, -150.6,    1.0678, 3,    7648.73,   88.1,    1.0594
"BUSMVMAI706", 12.505, 1,    7743.41,  -31.2,    1.0725, 2,    7709.42, -150.6,    1.0678, 3,    7649.16,   88.1,    1.0594
"BUSMVMAI876", 12.505, 3,    7653.12,   88.1,      1.06, 0, 0, 0, 0, 0, 0, 0, 0
"BUSMVMAI875", 12.505, 3,     7652.8,   88.1,    1.0599, 0, 0, 0, 0, 0, 0, 0, 0
"BUSMVMAI877", 12.505, 3,    7652.69,   88.1,    1.0599, 0, 0, 0, 0, 0, 0, 0, 0
"BUSMVMAI883", 12.505, 3,    7652.44,   88.1,    1.0599, 0, 0, 0, 0, 0, 0, 0, 0
"BUSMVMAI884", 12.505, 3,    7652.67,   88.1,    1.0599, 0, 0, 0, 0, 0, 0, 0, 0
"BUSMVMAI886", 12.505, 3,    7652.69,   88.1,    1.0599, 0, 0, 0, 0, 0, 0, 0, 0
"BUSMVMAI885", 12.505, 1,    7743.13,  -31.2,    1.0725, 0, 0, 0, 0, 0, 0, 0, 0
"BUSMVMAI879", 12.505, 3,     7650.5,   88.1,    1.0596, 0, 0, 0, 0, 0, 0, 0, 0
"BUSMVMAI881", 12.505, 3,    7650.46,   88.1,    1.0596, 0, 0, 0, 0, 0, 0, 0, 0
"BUSMVMAI888", 12.505, 3,    7650.42,   88.1,    1.0596, 0, 0, 0, 0, 0, 0, 0, 0
"BUSMVMAI882", 12.505, 3,    7650.42,   88.1,    1.0596, 0, 0, 0, 0, 0, 0, 0, 0
"BUSMVMAI944", 12.505, 3,    7650.42,   88.1,    1.0596, 0, 0, 0, 0, 0, 0, 0, 0
"BUSMVMAI889", 12.505, 3,    7652.21,   88.1,    1.0599, 0, 0, 0, 0, 0, 0, 0, 0
"BUSMVMAI2183", 12.505, 3,    7652.66,   88.1,    1.0599, 0, 0, 0, 0, 0, 0, 0, 0
"BUSMVMAI2184", 12.505, 3,    7652.66,   88.1,    1.0599, 0, 0, 0, 0, 0, 0, 0, 0
"BUSMVMAI71", 12.505, 1,    7741.26,  -31.2,    1.0722, 2,    7709.31, -150.6,    1.0678, 3,    7648.32,   88.1,    1.0593
"BUSMVMAI2182", 12.505, 1,    7743.12,  -31.2,    1.0725, 0, 0, 0, 0, 0, 0, 0, 0
"BUSMVMAI2185", 12.505, 1,    7743.14,  -31.2,    1.0725, 0, 0, 0, 0, 0, 0, 0, 0
"BUSMVMAI2186", 12.505, 1,    7743.01,  -31.2,    1.0724, 0, 0, 0, 0, 0, 0, 0, 0
"BUSMVMAI887", 12.505, 3,    7652.68,   88.1,    1.0599, 0, 0, 0, 0, 0, 0, 0, 0
"BUSMVMAI892", 12.505, 3,    7652.68,   88.1,    1.0599, 0, 0, 0, 0, 0, 0, 0, 0
"BUSMVMAI897", 12.505, 3,    7650.32,   88.1,    1.0596, 0, 0, 0, 0, 0, 0, 0, 0
"BUSMVMAI890", 12.505, 3,    7652.02,   88.1,    1.0598, 0, 0, 0, 0, 0, 0, 0, 0
"BUSMVMAI891", 12.505, 3,    7651.88,   88.1,    1.0598, 0, 0, 0, 0, 0, 0, 0, 0
"BUSMVMAI896", 12.505, 3,    7651.83,   88.1,    1.0598, 0, 0, 0, 0, 0, 0, 0, 0
"BUSMVMAI893", 12.505, 3,    7652.68,   88.1,    1.0599, 0, 0, 0, 0, 0, 0, 0, 0
"BUSMVMAI894", 12.505, 3,    7652.67,   88.1,    1.0599, 0, 0, 0, 0, 0, 0, 0, 0
"BUSMVMAI895", 12.505, 3,    7652.67,   88.1,    1.0599, 0, 0, 0, 0, 0, 0, 0, 0
"BUSMVMAI898", 12.505, 3,    7652.66,   88.1,    1.0599, 0, 0, 0, 0, 0, 0, 0, 0
"BUSMVMAI70", 12.505, 1,    7743.42,  -31.2,    1.0725, 2,    7709.42, -150.6,    1.0678, 3,    7649.12,   88.1,    1.0594
"BUSMVMAI69", 12.505, 1,    7743.42,  -31.2,    1.0725, 2,    7709.42, -150.6,    1.0678, 3,    7649.12,   88.1,    1.0594
"BUSMVMAI708", 12.505, 1,    7743.42,  -31.2,    1.0725, 2,    7709.42, -150.6,    1.0678, 3,    7649.13,   88.1,    1.0594
"BUSMVMAI72", 12.505, 1,    7739.89,  -31.2,     1.072, 2,    7709.23, -150.6,    1.0678, 3,    7647.77,   88.1,    1.0592
"BUSMVMAI73", 12.505, 1,    7738.57,  -31.2,    1.0718, 2,    7709.17, -150.6,    1.0678, 3,    7647.33,   88.1,    1.0592
"BUSMVMAI134", 12.505, 1,    7739.89,  -31.2,     1.072, 2,    7709.23, -150.6,    1.0678, 3,    7647.77,   88.1,    1.0592
"BUSMVMAI900", 12.505, 3,    7650.22,   88.1,    1.0596, 0, 0, 0, 0, 0, 0, 0, 0
"BUSMVMAI904", 12.505, 3,    7652.66,   88.1,    1.0599, 0, 0, 0, 0, 0, 0, 0, 0
"BUSMVMAI75", 12.505, 1,    7737.93,  -31.2,    1.0717, 2,    7709.19, -150.6,    1.0678, 3,    7647.07,   88.1,    1.0592
"BUSMVMAI718", 12.505, 1,    7738.57,  -31.2,    1.0718, 2,    7709.17, -150.6,    1.0678, 3,    7647.33,   88.1,    1.0592
"BUSMVMAI899", 12.505, 3,    7650.21,   88.1,    1.0596, 0, 0, 0, 0, 0, 0, 0, 0
"BUSMVMAI902", 12.505, 3,    7650.16,   88.1,    1.0596, 0, 0, 0, 0, 0, 0, 0, 0
"BUSMVMAI901", 12.505, 3,    7650.12,   88.1,    1.0596, 0, 0, 0, 0, 0, 0, 0, 0
"BUSMVMAI903", 12.505, 3,    7650.04,   88.1,    1.0596, 0, 0, 0, 0, 0, 0, 0, 0
"BUSMVMAI905", 12.505, 3,    7649.96,   88.1,    1.0596, 0, 0, 0, 0, 0, 0, 0, 0
"BUSMVMAI907", 12.505, 3,    7650.04,   88.1,    1.0596, 0, 0, 0, 0, 0, 0, 0, 0
"BUSMVMAI906", 12.505, 3,    7649.95,   88.1,    1.0595, 0, 0, 0, 0, 0, 0, 0, 0
"BUSMVMAI946", 12.505, 3,    7649.95,   88.1,    1.0595, 0, 0, 0, 0, 0, 0, 0, 0
"BUSMVMAI74", 12.505, 1,    7737.93,  -31.2,    1.0717, 2,    7709.19, -150.6,    1.0678, 3,    7647.07,   88.1,    1.0592
"BUSMVMAI76", 12.505, 1,     7737.8,  -31.2,    1.0717, 2,    7709.28, -150.6,    1.0678, 3,       7647,   88.1,    1.0591
"BUSMVMAI77", 12.505, 1,    7737.57,  -31.2,    1.0717, 2,    7709.14, -150.6,    1.0677, 3,    7646.95,   88.1,    1.0591
"BUSMVMAI79", 12.505, 1,    7737.79,  -31.2,    1.0717, 2,    7709.29, -150.6,    1.0678, 3,    7646.99,   88.1,    1.0591
"BUSMVMAI81", 12.505, 1,    7737.54,  -31.2,    1.0717, 2,    7709.01, -150.6,    1.0677, 3,    7646.99,   88.1,    1.0591
"BUSMVMAI91", 12.505, 1,    7736.66,  -31.2,    1.0716, 2,    7709.13, -150.7,    1.0677, 3,    7646.59,   88.1,    1.0591
"BUSMVMAI78", 12.505, 1,    7737.57,  -31.2,    1.0717, 2,    7709.44, -150.6,    1.0678, 3,    7646.85,   88.1,    1.0591
"BUSMVMAI80", 12.505, 1,    7737.34,  -31.2,    1.0717, 2,     7709.6, -150.6,    1.0678, 3,     7646.7,   88.1,    1.0591
"BUSMVMAI908", 12.505, 1,    7737.18,  -31.2,    1.0716, 0, 0, 0, 0, 0, 0, 0, 0
"BUSMVMAI89", 12.505, 1,    7737.31,  -31.2,    1.0716, 2,    7709.63, -150.6,    1.0678, 3,    7646.64,   88.1,    1.0591
"BUSMVMAI949", 12.505, 3,    7650.04,   88.1,    1.0596, 0, 0, 0, 0, 0, 0, 0, 0
"BUSMVMAI82", 12.505, 1,    7737.52,  -31.2,    1.0717, 2,    7708.91, -150.6,    1.0677, 3,    7647.02,   88.1,    1.0591
"BUSMVMAI83", 12.505, 1,    7737.54,  -31.2,    1.0717, 2,     7708.9, -150.6,    1.0677, 3,    7646.99,   88.1,    1.0591
"BUSMVMAI86", 12.505, 1,    7737.56,  -31.2,    1.0717, 2,    7708.88, -150.6,    1.0677, 3,    7646.96,   88.1,    1.0591
"BUSMVMAI85", 12.505, 1,    7738.55,  -31.2,    1.0718, 2,    7709.06, -150.6,    1.0677, 3,    7647.35,   88.1,    1.0592
"BUSMVMAI84", 12.505, 1,    7738.49,  -31.2,    1.0718, 2,    7708.97, -150.6,    1.0677, 3,     7647.4,   88.1,    1.0592
"BUSMVMAI93", 12.505, 1,    7738.45,  -31.2,    1.0718, 2,    7708.92, -150.6,    1.0677, 3,    7647.43,   88.1,    1.0592
"BUSMVMAI2198", 12.505, 2,    7708.97, -150.6,    1.0677, 0, 0, 0, 0, 0, 0, 0, 0
"BUSMVMAI709", 12.505, 1,    7738.57,  -31.2,    1.0718, 2,    7709.16, -150.6,    1.0678, 3,    7647.33,   88.1,    1.0592
"BUSMVMAI88", 12.505, 1,    7737.58,  -31.2,    1.0717, 2,    7708.87, -150.6,    1.0677, 3,    7646.93,   88.1,    1.0591
"BUSMVMAI87", 12.505, 1,     7737.6,  -31.2,    1.0717, 2,    7708.85, -150.6,    1.0677, 3,    7646.91,   88.1,    1.0591
"BUSMVMAI99", 12.505, 1,     7737.6,  -31.2,    1.0717, 2,    7708.85, -150.6,    1.0677, 3,    7646.91,   88.1,    1.0591
"BUSMVMAI722", 12.505, 1,     7737.6,  -31.2,    1.0717, 2,    7708.85, -150.6,    1.0677, 3,     7646.9,   88.1,    1.0591
"BUSMVMAI909", 12.505, 1,    7737.01,  -31.2,    1.0716, 0, 0, 0, 0, 0, 0, 0, 0
"BUSMVMAI90", 12.505, 1,    7737.33,  -31.2,    1.0717, 2,    7709.61, -150.6,    1.0678, 3,    7646.58,   88.1,    1.0591
"BUSMVMAI102", 12.505, 1,    7737.35,  -31.2,    1.0717, 2,     7709.6, -150.6,    1.0678, 3,    7646.52,   88.1,    1.0591
"BUSMVMAI92", 12.505, 1,    7735.87,  -31.2,    1.0714, 2,    7709.12, -150.7,    1.0677, 3,    7646.27,   88.1,     1.059
"BUSMVMAI132", 12.505, 1,    7736.66,  -31.2,    1.0716, 2,    7709.13, -150.7,    1.0677, 3,    7646.59,   88.1,    1.0591
"BUSMVMAI98", 12.505, 1,    7735.87,  -31.2,    1.0714, 2,    7709.12, -150.7,    1.0677, 3,    7646.27,   88.1,     1.059
"BUSMVMAI100", 12.505, 1,    7734.87,  -31.2,    1.0713, 2,    7709.23, -150.7,    1.0678, 3,    7645.81,   88.1,     1.059
"BUSMVMAI723", 12.505, 1,    7735.87,  -31.2,    1.0714, 2,    7709.11, -150.7,    1.0677, 3,    7646.27,   88.1,     1.059
"BUSMVMAI96", 12.505, 1,    7738.41,  -31.2,    1.0718, 2,    7708.87, -150.6,    1.0677, 3,    7647.45,   88.1,    1.0592
"BUSMVMAI916", 12.505, 1,    7738.44,  -31.2,    1.0718, 0, 0, 0, 0, 0, 0, 0, 0
"BUSMVMAI95", 12.505, 1,    7735.87,  -31.2,    1.0715, 2,    7709.03, -150.7,    1.0677, 3,    7646.28,   88.1,     1.059
"BUSMVMAI94", 12.505, 1,    7735.84,  -31.2,    1.0714, 2,    7708.94, -150.7,    1.0677, 3,    7646.32,   88.1,     1.059
"BUSMVMAI112", 12.505, 1,    7735.84,  -31.2,    1.0714, 2,    7708.94, -150.7,    1.0677, 3,    7646.31,   88.1,     1.059
"BUSMVMAI126", 12.505, 1,    7735.87,  -31.2,    1.0715, 2,    7709.03, -150.7,    1.0677, 3,    7646.28,   88.1,     1.059
"BUSMVMAI97", 12.505, 1,    7738.36,  -31.2,    1.0718, 2,     7708.8, -150.6,    1.0677, 3,     7647.5,   88.1,    1.0592
"BUSMVMAI711", 12.505, 1,    7738.41,  -31.2,    1.0718, 2,    7708.87, -150.6,    1.0677, 3,    7647.45,   88.1,    1.0592
"BUSMVMAI915", 12.505, 1,    7738.36,  -31.2,    1.0718, 0, 0, 0, 0, 0, 0, 0, 0
...
"BUSLVMAI1", 0.20785, 1,    127.228,   88.2,    1.0602, 2,    127.243,  -91.8,    1.0604, 0, 0, 0, 0
"BUSLVMAI2", 0.20785, 1,    127.461,   88.3,    1.0622, 2,    127.474,  -91.7,    1.0623, 0, 0, 0, 0
"BUSLVMAI3", 0.20785, 1,    127.196,   88.1,      1.06, 2,    127.212,  -91.9,    1.0601, 0, 0, 0, 0
"BUSLVMAI4", 0.20785, 1,    128.069,  -31.5,    1.0672, 2,    128.205,  148.5,    1.0684, 0, 0, 0, 0
"BUSLVMAI5", 0.20785, 1,    127.453, -150.7,    1.0621, 2,    127.541,   29.3,    1.0628, 0, 0, 0, 0
"BUSLVMAI6", 0.20785, 1,     127.01,   88.0,    1.0584, 2,    127.025,  -92.0,    1.0585, 0, 0, 0, 0
"BUSLVMAI7", 0.20785, 1,    127.232,   88.2,    1.0603, 2,    127.247,  -91.9,    1.0604, 0, 0, 0, 0
"BUSLVMAI8", 0.20785, 1,    126.568,   87.9,    1.0547, 2,    126.586,  -92.1,    1.0549, 0, 0, 0, 0
"BUSLVMAI9", 0.20785, 1,    126.482,   87.6,     1.054, 2,    126.495,  -92.4,    1.0541, 0, 0, 0, 0
"BUSLVMAI10", 0.20785, 1,    126.474,   87.6,     1.054, 2,    126.487,  -92.4,    1.0541, 0, 0, 0, 0
"BUSLVMAI11", 0.20785, 1,        128, -150.6,    1.0667, 2,    128.013,   29.4,    1.0668, 0, 0, 0, 0
"BUSLVMAI12", 0.20785, 1,    127.954, -150.7,    1.0663, 2,     127.97,   29.3,    1.0664, 0, 0, 0, 0
"BUSLVMAI13", 0.20785, 1,    128.789,  -31.1,    1.0732, 2,    128.805,  148.9,    1.0734, 0, 0, 0, 0
"BUSLVMAI14", 0.20785, 1,    128.857,  -31.2,    1.0738, 2,    128.872,  148.8,    1.0739, 0, 0, 0, 0
"BUSLVMAI15", 0.20785, 1,    128.949,  -31.0,    1.0746, 2,    128.962,  149.0,    1.0747, 0, 0, 0, 0
"BUSLVMAI16", 0.20785, 1,      127.2,   88.1,      1.06, 2,    127.218,  -91.9,    1.0602, 0, 0, 0, 0
"BUSLVMAI17", 0.20785, 1,      125.8,   87.5,    1.0483, 2,    125.826,  -92.5,    1.0485, 0, 0, 0, 0
"BUSLVMAI18", 0.20785, 1,    127.089,   88.0,    1.0591, 2,    127.104,  -92.0,    1.0592, 0, 0, 0, 0
"BUSLVMAI19", 0.20785, 1,    127.254,   88.2,    1.0605, 2,    127.267,  -91.8,    1.0606, 0, 0, 0, 0
"BUSLVMAI20", 0.20785, 1,     127.73, -150.7,    1.0644, 2,    127.772,   29.3,    1.0648, 0, 0, 0, 0
"BUSLVMAI21", 0.20785, 1,    127.229,   88.2,    1.0602, 2,    127.244,  -91.8,    1.0604, 0, 0, 0, 0
"BUSLVMAI22", 0.20785, 1,    128.615,  -31.2,    1.0718, 2,    128.763,  148.8,     1.073, 0, 0, 0, 0
"BUSLVMAI23", 0.20785, 1,    127.149,   88.1,    1.0596, 2,    127.164,  -91.9,    1.0597, 0, 0, 0, 0
"BUSLVMAI24", 0.20785, 1,    127.179,   88.1,    1.0598, 2,    127.194,  -91.9,      1.06, 0, 0, 0, 0
"BUSLVMAI25", 0.20785, 1,     127.08,   88.1,     1.059, 2,    127.095,  -91.9,    1.0591, 0, 0, 0, 0
"BUSLVMAI26", 0.20785, 1,    127.888, -150.7,    1.0657, 2,    127.904,   29.3,    1.0659, 0, 0, 0, 0
"BUSLVMAI27", 0.20785, 1,    128.045, -150.6,     1.067, 2,    128.062,   29.4,    1.0672, 0, 0, 0, 0
"BUSLVMAI28", 0.20785, 1,    127.089,   88.0,    1.0591, 2,    127.104,  -92.0,    1.0592, 0, 0, 0, 0
"BUSLVMAI29", 0.20785, 1,    126.525,   87.6,    1.0544, 2,    126.541,  -92.4,    1.0545, 0, 0, 0, 0
"BUSLVMAI30", 0.20785, 1,    127.859, -150.6,    1.0655, 2,    127.873,   29.4,    1.0656, 0, 0, 0, 0
"BUSLVMAI31", 0.20785, 1,    127.198,   88.1,      1.06, 2,    127.214,  -91.9,    1.0601, 0, 0, 0, 0
"BUSLVMAI32", 0.20785, 1,    128.731,  -31.1,    1.0728, 2,    128.744,  148.9,    1.0729, 0, 0, 0, 0
"BUSLVMAI33", 0.20785, 1,    127.046,   88.0,    1.0587, 2,    127.059,  -92.0,    1.0588, 0, 0, 0, 0
"BUSLVMAI34", 0.20785, 1,    125.786,   87.8,    1.0482, 2,    125.929,  -92.2,    1.0494, 0, 0, 0, 0
"BUSLVMAI35", 0.20785, 1,    127.117,   88.1,    1.0593, 2,    127.131,  -91.9,    1.0594, 0, 0, 0, 0
"BUSLVMAI36", 0.20785, 1,    127.114,   88.1,    1.0593, 2,    127.128,  -91.9,    1.0594, 0, 0, 0, 0
"BUSLVMAI37", 0.20785, 1,    127.059,   88.1,    1.0588, 2,    127.074,  -91.9,     1.059, 0, 0, 0, 0
"BUSLVMAI38", 0.20785, 1,    123.817, -151.6,    1.0318, 2,    123.834,   28.4,     1.032, 0, 0, 0, 0
"BUSLVMAI39", 0.20785, 1,    127.994, -150.7,    1.0666, 2,    128.007,   29.3,    1.0667, 0, 0, 0, 0
"BUSLVMAI40", 0.20785, 1,    126.613,   87.9,    1.0551, 2,    126.702,  -92.1,    1.0558, 0, 0, 0, 0
"BUSLVMAI41", 0.20785, 1,    128.562,  -31.2,    1.0714, 2,    128.578,  148.8,    1.0715, 0, 0, 0, 0
"BUSLVMAI42", 0.20785, 1,     128.57,  -31.2,    1.0714, 2,    128.585,  148.8,    1.0715, 0, 0, 0, 0
"BUSLVMAI43", 0.20785, 1,    128.465,  -31.3,    1.0705, 2,    128.481,  148.7,    1.0707, 0, 0, 0, 0
"BUSLVMAI44", 0.20785, 1,    126.843,   88.0,     1.057, 2,    126.911,  -92.0,    1.0576, 0, 0, 0, 0
"BUSLVMAI45", 0.20785, 1,    126.919,   88.1,    1.0577, 2,    126.933,  -91.9,    1.0578, 0, 0, 0, 0
"BUSLVMAI46", 0.20785, 1,    127.065,   88.1,    1.0589, 2,    127.081,  -91.9,     1.059, 0, 0, 0, 0
"BUSLVMAI47", 0.20785, 1,    127.121,   88.1,    1.0593, 2,    127.135,  -91.9,    1.0595, 0, 0, 0, 0
"BUSLVMAI48", 0.20785, 1,    126.415,   87.8,    1.0535, 2,    126.454,  -92.2,    1.0538, 0, 0, 0, 0
"BUSLVMAI49", 0.20785, 1,    128.577,  -31.2,    1.0715, 2,    128.593,  148.8,    1.0716, 0, 0, 0, 0
"BUSLVMAI50", 0.20785, 1,     125.86, -151.3,    1.0488, 2,    126.071,   28.7,    1.0506, 0, 0, 0, 0
"BUSLVMAI51", 0.20785, 1,    127.691,  -31.5,    1.0641, 2,    127.707,  148.5,    1.0642, 0, 0, 0, 0
"BUSLVMAI52", 0.20785, 1,    127.132,   88.1,    1.0594, 2,    127.145,  -91.9,    1.0595, 0, 0, 0, 0
"BUSLVMAI53", 0.20785, 1,    127.111,   88.1,    1.0593, 2,    127.127,  -91.9,    1.0594, 0, 0, 0, 0
"BUSLVMAI54", 0.20785, 1,    125.907,   87.7,    1.0492, 2,    125.923,  -92.3,    1.0494, 0, 0, 0, 0
"BUSLVMAI55", 0.20785, 1,    128.536,  -31.2,    1.0711, 2,    128.552,  148.8,    1.0713, 0, 0, 0, 0
"BUSLVMAI56", 0.20785, 1,    127.044,   88.2,    1.0587, 2,    127.058,  -91.8,    1.0588, 0, 0, 0, 0
"BUSLVMAI57", 0.20785, 1,    127.045,   88.1,    1.0587, 2,    127.061,  -91.9,    1.0588, 0, 0, 0, 0
"BUSLVMAI58", 0.20785, 1,     127.13,   88.1,    1.0594, 2,    127.144,  -91.9,    1.0595, 0, 0, 0, 0
"BUSLVMAI59", 0.20785, 1,    128.577,  -31.2,    1.0715, 2,    128.593,  148.8,    1.0716, 0, 0, 0, 0
"BUSLVMAI60", 0.20785, 1,    128.315,  -31.3,    1.0693, 2,    128.328,  148.7,    1.0694, 0, 0, 0, 0
"BUSLVMAI61", 0.20785, 1,    127.366,  -31.7,    1.0614, 2,    127.384,  148.2,    1.0615, 0, 0, 0, 0
"BUSLVMAI62", 0.20785, 1,    127.874, -150.7,    1.0656, 2,    127.888,   29.2,    1.0657, 0, 0, 0, 0
"BUSLVMAI63", 0.20785, 1,    128.477,  -31.2,    1.0706, 2,    128.511,  148.8,    1.0709, 0, 0, 0, 0
"BUSLVMAI64", 0.20785, 1,    127.768, -150.8,    1.0647, 2,    127.781,   29.2,    1.0648, 0, 0, 0, 0
"BUSLVMAI65", 0.20785, 1,    128.557,  -31.2,    1.0713, 2,    128.572,  148.8,    1.0714, 0, 0, 0, 0
"BUSLVMAI66", 0.20785, 1,    127.116,   88.1,    1.0593, 2,     127.13,  -91.9,    1.0594, 0, 0, 0, 0
"BUSLVMAI67", 0.20785, 1,    128.122,  -31.3,    1.0677, 2,    128.139,  148.7,    1.0678, 0, 0, 0, 0
"BUSLVMAI68", 0.20785, 1,    128.054,  -31.4,    1.0671, 2,    128.067,  148.5,    1.0672, 0, 0, 0, 0
"BUSLVMAI69", 0.20785, 1,    127.121,   88.1,    1.0593, 2,    127.134,  -91.9,    1.0594, 0, 0, 0, 0
"BUSLVMAI70", 0.20785, 1,    126.472,   87.8,    1.0539, 2,    126.534,  -92.2,    1.0544, 0, 0, 0, 0
"BUSLVMAI71", 0.20785, 1,    128.415,  -31.2,    1.0701, 2,    128.429,  148.8,    1.0702, 0, 0, 0, 0
"BUSLVMAI72", 0.20785, 1,    128.386,  -31.3,    1.0699, 2,    128.399,  148.7,      1.07, 0, 0, 0, 0
"BUSLVMAI73", 0.20785, 1,    128.476,  -31.2,    1.0706, 2,    128.489,  148.8,    1.0707, 0, 0, 0, 0
"BUSLVMAI74", 0.20785, 1,    128.576,  -31.2,    1.0715, 2,    128.591,  148.8,    1.0716, 0, 0, 0, 0
"BUSLVMAI75", 0.20785, 1,    127.768, -150.8,    1.0647, 2,    127.782,   29.2,    1.0649, 0, 0, 0, 0
"BUSLVMAI76", 0.20785, 1,    127.115,   88.1,    1.0593, 2,    127.128,  -91.9,    1.0594, 0, 0, 0, 0
"BUSLVMAI77", 0.20785, 1,    128.091,  -31.4,    1.0674, 2,    128.105,  148.6,    1.0675, 0, 0, 0, 0
"BUSLVMAI78", 0.20785, 1,    128.583,  -31.2,    1.0715, 2,    128.596,  148.8,    1.0716, 0, 0, 0, 0
"BUSLVMAI79", 0.20785, 1,    127.052,   88.1,    1.0588, 2,    127.066,  -91.9,    1.0589, 0, 0, 0, 0
"BUSLVMAI80", 0.20785, 1,    125.894,   87.5,    1.0491, 2,    125.943,  -92.5,    1.0495, 0, 0, 0, 0
"BUSLVMAI81", 0.20785, 1,    127.114,   88.1,    1.0593, 2,    127.128,  -91.9,    1.0594, 0, 0, 0, 0
"BUSLVMAI82", 0.20785, 1,    127.171,   88.2,    1.0598, 2,    127.187,  -91.8,    1.0599, 0, 0, 0, 0
"BUSLVMAI83", 0.20785, 1,    128.049,  -31.4,    1.0671, 2,    128.068,  148.6,    1.0672, 0, 0, 0, 0
"BUSLVMAI84", 0.20785, 1,    127.023,   88.2,    1.0585, 2,    127.037,  -91.8,    1.0586, 0, 0, 0, 0
"BUSLVMAI85", 0.20785, 1,    128.079, -150.6,    1.0673, 2,    128.102,   29.4,    1.0675, 0, 0, 0, 0
"BUSLVMAI86", 0.20785, 1,    128.264,  -31.3,    1.0689, 2,    128.294,  148.7,    1.0691, 0, 0, 0, 0
"BUSLVMAI87", 0.20785, 1,    128.722,  -31.1,    1.0727, 2,     128.75,  148.9,    1.0729, 0, 0, 0, 0
"BUSLVMAI88", 0.20785, 1,     127.16,   88.1,    1.0597, 2,    127.173,  -91.9,    1.0598, 0, 0, 0, 0
"BUSLVMAI89", 0.20785, 1,    127.115,   88.1,    1.0593, 2,    127.128,  -91.9,    1.0594, 0, 0, 0, 0
"BUSLVMAI90", 0.20785, 1,    126.406,   87.9,    1.0534, 2,    126.422,  -92.1,    1.0535, 0, 0, 0, 0
"BUSLVMAI91", 0.20785, 1,    127.046,   88.1,    1.0587, 2,    127.061,  -91.9,    1.0588, 0, 0, 0, 0
"BUSLVMAI92", 0.20785, 1,    128.189,  -31.4,    1.0682, 2,    128.205,  148.6,    1.0684, 0, 0, 0, 0
"BUSLVMAI93", 0.20785, 1,    127.037,   88.2,    1.0586, 2,    127.053,  -91.8,    1.0588, 0, 0, 0, 0
"BUSLVMAI94", 0.20785, 1,    126.841,   88.0,     1.057, 2,    126.855,  -92.0,    1.0571, 0, 0, 0, 0
"BUSLVMAI95", 0.20785, 1,    127.045,   88.1,    1.0587, 2,    127.061,  -91.9,    1.0588, 0, 0, 0, 0
"BUSLVMAI96", 0.20785, 1,    127.118,   88.1,    1.0593, 2,    127.133,  -91.9,    1.0594, 0, 0, 0, 0
"BUSLVMAI97", 0.20785, 1,    128.087, -150.6,    1.0674, 2,    128.103,   29.4,    1.0675, 0, 0, 0, 0
"BUSLVMAI98", 0.20785, 1,    128.087, -150.6,    1.0674, 2,    128.103,   29.4,    1.0675, 0, 0, 0, 0
"BUSLVMAI99", 0.20785, 1,    127.106,   88.1,    1.0592, 2,     127.12,  -91.9,    1.0593, 0, 0, 0, 0
"BUSLVMAI100", 0.20785, 1,    127.155,   88.1,    1.0596, 2,     127.17,  -91.9,    1.0597, 0, 0, 0, 0
"BUSLVMAI101", 0.20785, 1,    127.043,   88.1,    1.0587, 2,    127.059,  -91.9,    1.0588, 0, 0, 0, 0
"BUSLVMAI102", 0.20785, 1,    127.113,   88.1,    1.0593, 2,    127.129,  -91.9,    1.0594, 0, 0, 0, 0
"BUSLVMAI103", 0.20785, 1,    126.976,   88.1,    1.0581, 2,    126.992,  -91.9,    1.0583, 0, 0, 0, 0
"BUSLVMAI104", 0.20785, 1,    126.855,   88.0,    1.0571, 2,    126.869,  -92.0,    1.0572, 0, 0, 0, 0
"BUSLVMAI105", 0.20785, 1,    126.663,   88.0,    1.0555, 2,    126.677,  -92.1,    1.0556, 0, 0, 0, 0
"BUSLVMAI106", 0.20785, 1,    128.542,  -31.2,    1.0712, 2,    128.555,  148.8,    1.0713, 0, 0, 0, 0
"BUSLVMAI107", 0.20785, 1,    127.121,   88.1,    1.0593, 2,    127.135,  -91.9,    1.0595, 0, 0, 0, 0
"BUSLVMAI108", 0.20785, 1,    127.053,   88.1,    1.0588, 2,    127.068,  -91.9,    1.0589, 0, 0, 0, 0
"BUSLVMAI109", 0.20785, 1,    128.256,  -31.3,    1.0688, 2,    128.305,  148.7,    1.0692, 0, 0, 0, 0
"BUSLVMAI110", 0.20785, 1,    128.158,  -31.4,     1.068, 2,    128.175,  148.6,    1.0681, 0, 0, 0, 0
"BUSLVMAI111", 0.20785, 1,    128.322,  -31.3,    1.0694, 2,    128.339,  148.7,    1.0695, 0, 0, 0, 0
"BUSLVMAI112", 0.20785, 1,    128.463,  -31.2,    1.0705, 2,    128.479,  148.8,    1.0707, 0, 0, 0, 0
"BUSLVMAI113", 0.20785, 1,    128.056, -150.6,    1.0671, 2,    128.072,   29.3,    1.0673, 0, 0, 0, 0
"BUSLVMAI114", 0.20785, 1,    127.664,  -31.4,    1.0639, 2,     127.68,  148.6,     1.064, 0, 0, 0, 0
"BUSLVMAI115", 0.20785, 1,    128.323,  -31.3,    1.0694, 2,    128.336,  148.7,    1.0695, 0, 0, 0, 0
"BUSLVMAI116", 0.20785, 1,     127.01,   88.2,    1.0584, 2,    127.023,  -91.9,    1.0585, 0, 0, 0, 0
"BUSLVMAI117", 0.20785, 1,    127.969,  -31.4,    1.0664, 2,    128.007,  148.6,    1.0667, 0, 0, 0, 0
"BUSLVMAI118", 0.20785, 1,     128.62,  -31.1,    1.0718, 2,    128.637,  148.9,     1.072, 0, 0, 0, 0
"BUSLVMAI119", 0.20785, 1,    126.658,   88.0,    1.0555, 2,    126.671,  -92.1,    1.0556, 0, 0, 0, 0
"BUSLVMAI120", 0.20785, 1,    128.322,  -31.3,    1.0693, 2,    128.336,  148.7,    1.0695, 0, 0, 0, 0
"BUSLVMAI121", 0.20785, 1,    128.123, -150.7,    1.0677, 2,    128.139,   29.3,    1.0678, 0, 0, 0, 0
"BUSLVMAI122", 0.20785, 1,    126.993,   88.2,    1.0583, 2,    127.009,  -91.8,    1.0584, 0, 0, 0, 0
"BUSLVMAI123", 0.20785, 1,    128.124, -150.7,    1.0677, 2,    128.139,   29.3,    1.0678, 0, 0, 0, 0
"BUSLVMAI124", 0.20785, 1,    126.435,   87.9,    1.0536, 2,    126.495,  -92.1,    1.0541, 0, 0, 0, 0
"BUSLVMAI125", 0.20785, 1,    126.511,   88.0,    1.0543, 2,    126.529,  -92.0,    1.0544, 0, 0, 0, 0
"BUSLVMAI126", 0.20785, 1,     128.13, -150.7,    1.0678, 2,    128.145,   29.3,    1.0679, 0, 0, 0, 0
"BUSLVMAI127", 0.20785, 1,    126.998,   88.2,    1.0583, 2,    127.012,  -91.8,    1.0584, 0, 0, 0, 0
"BUSLVMAI128", 0.20785, 1,    127.679, -150.7,     1.064, 2,      127.7,   29.3,    1.0642, 0, 0, 0, 0
"BUSLVMAI129", 0.20785, 1,    128.322,  -31.3,    1.0693, 2,    128.335,  148.7,    1.0695, 0, 0, 0, 0
"BUSLVMAI130", 0.20785, 1,    128.458,  -31.2,    1.0705, 2,    128.474,  148.8,    1.0706, 0, 0, 0, 0
"BUSLVMAI131", 0.20785, 1,    127.276,  -31.6,    1.0606, 2,    127.303,  148.4,    1.0609, 0, 0, 0, 0
"BUSLVMAI132", 0.20785, 1,    128.318,  -31.3,    1.0693, 2,    128.331,  148.7,    1.0694, 0, 0, 0, 0
"BUSLVMAI133", 0.20785, 1,    127.019,   88.1,    1.0585, 2,    127.037,  -91.9,    1.0586, 0, 0, 0, 0
"BUSLVMAI134", 0.20785, 1,    126.808,   88.0,    1.0567, 2,    126.826,  -92.0,    1.0569, 0, 0, 0, 0
"BUSLVMAI135", 0.20785, 1,    126.933,   88.1,    1.0578, 2,    126.949,  -91.9,    1.0579, 0, 0, 0, 0
"BUSLVMAI136", 0.20785, 1,    128.022,  -31.4,    1.0668, 2,    128.076,  148.6,    1.0673, 0, 0, 0, 0
"BUSLVMAI137", 0.20785, 1,    128.107, -150.6,    1.0676, 2,     128.12,   29.4,    1.0677, 0, 0, 0, 0
"BUSLVMAI138", 0.20785, 1,    127.913, -150.7,    1.0659, 2,    127.961,   29.3,    1.0663, 0, 0, 0, 0
"BUSLVMAI139", 0.20785, 1,     127.44, -150.9,     1.062, 2,    127.458,   29.1,    1.0621, 0, 0, 0, 0
"BUSLVMAI140", 0.20785, 1,    128.011,  -31.4,    1.0668, 2,    128.027,  148.6,    1.0669, 0, 0, 0, 0
"BUSLVMAI141", 0.20785, 1,    128.131, -150.7,    1.0678, 2,    128.145,   29.3,    1.0679, 0, 0, 0, 0
"BUSLVMAI142", 0.20785, 1,    127.587, -150.9,    1.0632, 2,    127.601,   29.1,    1.0633, 0, 0, 0, 0
"BUSLVMAI143", 0.20785, 1,    127.945, -150.7,    1.0662, 2,     127.96,   29.3,    1.0663, 0, 0, 0, 0
"BUSLVMAI144", 0.20785, 1,    126.996,   88.2,    1.0583, 2,    127.011,  -91.8,    1.0584, 0, 0, 0, 0
"BUSLVMAI145", 0.20785, 1,      128.4,  -31.3,      1.07, 2,    128.416,  148.7,    1.0701, 0, 0, 0, 0
"BUSLVMAI146", 0.20785, 1,    128.112, -150.7,    1.0676, 2,    128.127,   29.3,    1.0677, 0, 0, 0, 0
"BUSLVMAI147", 0.20785, 1,    128.196,  -31.2,    1.0683, 2,    128.213,  148.8,    1.0684, 0, 0, 0, 0
"BUSLVMAI148", 0.20785, 1,     126.95,   88.1,    1.0579, 2,    126.965,  -91.9,     1.058, 0, 0, 0, 0
"BUSLVMAI149", 0.20785, 1,    127.856, -150.7,    1.0655, 2,    127.869,   29.3,    1.0656, 0, 0, 0, 0
"BUSLVMAI150", 0.20785, 1,    127.697,  -31.6,    1.0641, 2,     127.72,  148.4,    1.0643, 0, 0, 0, 0
"BUSLVMAI151", 0.20785, 1,    128.135, -150.5,    1.0678, 2,    128.148,   29.5,    1.0679, 0, 0, 0, 0
"BUSLVMAI152", 0.20785, 1,     128.31,  -31.3,    1.0693, 2,    128.326,  148.7,    1.0694, 0, 0, 0, 0
"BUSLVMAI153", 0.20785, 1,    126.128,   87.8,    1.0511, 2,    126.144,  -92.2,    1.0512, 0, 0, 0, 0
"BUSLVMAI154", 0.20785, 1,    127.012,   88.1,    1.0584, 2,    127.028,  -91.9,    1.0586, 0, 0, 0, 0
"BUSLVMAI155", 0.20785, 1,    127.877,  -31.5,    1.0656, 2,    127.891,  148.5,    1.0658, 0, 0, 0, 0
"BUSLVMAI156", 0.20785, 1,    128.333,  -31.3,    1.0694, 2,    128.347,  148.7,    1.0696, 0, 0, 0, 0
"BUSLVMAI157", 0.20785, 1,    127.096,  -31.7,    1.0591, 2,    127.112,  148.3,    1.0593, 0, 0, 0, 0
"BUSLVMAI158", 0.20785, 1,    128.031, -150.7,    1.0669, 2,    128.044,   29.3,     1.067, 0, 0, 0, 0
"BUSLVMAI159", 0.20785, 1,    128.069, -150.6,    1.0672, 2,    128.082,   29.3,    1.0674, 0, 0, 0, 0
"BUSLVMAI160", 0.20785, 1,    128.481,  -31.1,    1.0707, 2,      128.5,  148.9,    1.0708, 0, 0, 0, 0
"BUSLVMAI161", 0.20785, 1,    127.968,  -31.4,    1.0664, 2,    128.036,  148.6,     1.067, 0, 0, 0, 0
"BUSLVMAI162", 0.20785, 1,    128.148,  -31.3,    1.0679, 2,    128.164,  148.7,     1.068, 0, 0, 0, 0
"BUSLVMAI163", 0.20785, 1,     128.31,  -31.3,    1.0693, 2,    128.326,  148.7,    1.0694, 0, 0, 0, 0
"BUSLVMAI164", 0.20785, 1,    128.519,  -31.2,     1.071, 2,    128.532,  148.8,    1.0711, 0, 0, 0, 0
"BUSLVMAI165", 0.20785, 1,    127.454,  -31.6,    1.0621, 2,    127.575,  148.4,    1.0631, 0, 0, 0, 0
"BUSLVMAI166", 0.20785, 1,    128.013,  -31.4,    1.0668, 2,    128.069,  148.6,    1.0672, 0, 0, 0, 0
"BUSLVMAI167", 0.20785, 1,    126.718,   88.0,     1.056, 2,    126.743,  -92.0,    1.0562, 0, 0, 0, 0
"BUSLVMAI168", 0.20785, 1,    126.886,   88.1,    1.0574, 2,      126.9,  -91.9,    1.0575, 0, 0, 0, 0
"BUSLVMAI169", 0.20785, 1,    126.036,  -31.7,    1.0503, 2,    126.054,  148.2,    1.0504, 0, 0, 0, 0
"BUSLVMAI170", 0.20785, 1,    128.321,  -31.3,    1.0693, 2,    128.335,  148.7,    1.0695, 0, 0, 0, 0
"BUSLVMAI171", 0.20785, 1,    127.794,  -31.4,    1.0649, 2,    127.853,  148.6,    1.0654, 0, 0, 0, 0
"BUSLVMAI172", 0.20785, 1,    126.916,   88.1,    1.0576, 2,     126.93,  -91.9,    1.0577, 0, 0, 0, 0
"BUSLVMAI173", 0.20785, 1,    126.993,   88.2,    1.0583, 2,    127.008,  -91.8,    1.0584, 0, 0, 0, 0
"BUSLVMAI174", 0.20785, 1,    127.846,  -31.4,    1.0654, 2,    127.902,  148.6,    1.0658, 0, 0, 0, 0
"BUSLVMAI175", 0.20785, 1,    127.699,  -31.6,    1.0642, 2,    127.713,  148.4,    1.0643, 0, 0, 0, 0
"BUSLVMAI176", 0.20785, 1,    126.767,   88.0,    1.0564, 2,     126.78,  -92.0,    1.0565, 0, 0, 0, 0
"BUSLVMAI177", 0.20785, 1,    126.988,   88.1,    1.0582, 2,    127.001,  -91.9,    1.0583, 0, 0, 0, 0
"BUSLVMAI178", 0.20785, 1,    128.048, -150.7,    1.0671, 2,    128.061,   29.3,    1.0672, 0, 0, 0, 0
"BUSLVMAI179", 0.20785, 1,    127.882, -150.8,    1.0657, 2,    127.895,   29.2,    1.0658, 0, 0, 0, 0
"BUSLVMAI180", 0.20785, 1,    128.333,  -31.3,    1.0694, 2,    128.346,  148.7,    1.0696, 0, 0, 0, 0
"BUSLVMAI181", 0.20785, 1,    128.319,  -31.3,    1.0693, 2,    128.333,  148.7,    1.0694, 0, 0, 0, 0
"BUSLVMAI182", 0.20785, 1,    127.931,  -31.4,    1.0661, 2,    128.041,  148.6,     1.067, 0, 0, 0, 0
"BUSLVMAI183", 0.20785, 1,    126.926,   88.1,    1.0577, 2,     126.94,  -91.9,    1.0578, 0, 0, 0, 0
"BUSLVMAI184", 0.20785, 1,    128.496,  -31.2,    1.0708, 2,    128.509,  148.8,    1.0709, 0, 0, 0, 0
"BUSLVMAI185", 0.20785, 1,    127.788, -150.7,    1.0649, 2,    127.801,   29.3,     1.065, 0, 0, 0, 0
"BUSLVMAI186", 0.20785, 1,    127.016,   88.1,    1.0585, 2,    127.031,  -91.9,    1.0586, 0, 0, 0, 0
"BUSLVMAI187", 0.20785, 1,    127.049,   88.2,    1.0587, 2,    127.062,  -91.8,    1.0589, 0, 0, 0, 0
"BUSLVMAI188", 0.20785, 1,    128.074, -150.6,    1.0673, 2,     128.09,   29.3,    1.0674, 0, 0, 0, 0
"BUSLVMAI189", 0.20785, 1,    128.328,  -31.3,    1.0694, 2,    128.344,  148.7,    1.0695, 0, 0, 0, 0
"BUSLVMAI190", 0.20785, 1,    128.069, -150.6,    1.0672, 2,    128.085,   29.3,    1.0674, 0, 0, 0, 0
"BUSLVMAI191", 0.20785, 1,    127.012,   88.1,    1.0584, 2,    127.028,  -91.9,    1.0586, 0, 0, 0, 0
"BUSLVMAI192", 0.20785, 1,    128.313,  -31.3,    1.0693, 2,    128.329,  148.7,    1.0694, 0, 0, 0, 0
"BUSLVMAI193", 0.20785, 1,    128.322,  -31.3,    1.0694, 2,    128.339,  148.7,    1.0695, 0, 0, 0, 0
"BUSLVMAI194", 0.20785, 1,    126.936,   88.1,    1.0578, 2,    126.951,  -91.9,    1.0579, 0, 0, 0, 0
"BUSLVMAI195", 0.20785, 1,    127.014,   88.2,    1.0585, 2,     127.03,  -91.9,    1.0586, 0, 0, 0, 0
"BUSLVMAI196", 0.20785, 1,    128.054, -150.6,    1.0671, 2,     128.07,   29.3,    1.0672, 0, 0, 0, 0
"BUSLVMAI197", 0.20785, 1,    127.805, -150.8,     1.065, 2,     127.82,   29.2,    1.0652, 0, 0, 0, 0
"BUSLVMAI198", 0.20785, 1,    128.055, -150.6,    1.0671, 2,     128.07,   29.3,    1.0673, 0, 0, 0, 0
"BUSLVMAI199", 0.20785, 1,    128.055, -150.6,    1.0671, 2,    128.071,   29.3,    1.0673, 0, 0, 0, 0
"BUSLVMAI200", 0.20785, 1,    128.313,  -31.3,    1.0693, 2,    128.329,  148.7,    1.0694, 0, 0, 0, 0
...
